1658925573.454456s 1 https://api.dandiarchive.org/api/zarr/cf1104ff-2fb4-4224-b70e-7974416c9d9d.zarr/0/0/0/13/10/234
1658925573.446631s 1 https://dandiarchive.s3.amazonaws.com/zarr/cf1104ff-2fb4-4224-b70e-7974416c9d9d/0/0/0/13/10/234?versionId=MT3DwAGqDtVephbKteDqAZ07zZbvQlW1
